Circuit: * D:\GitHub\Analog\lb3\simulation\Draft1.asc

Direct Newton iteration for .op point succeeded.

Date: Tue Mar 06 15:55:50 2018
Total elapsed time: 0.153 seconds.

tnom = 27
temp = 27
method = modified trap
totiter = 2092
traniter = 2086
tranpoints = 1042
accept = 1042
rejected = 0
matrix size = 9
fillins = 0
solver = Normal
Matrix Compiler1: 430 bytes object code size  0.2/0.1/[0.0]
Matrix Compiler2: off  [0.1]/0.2/0.2

