Circuit: * D:\GitHub\Analog\lb3\simulation\Ic(Uzv).asc

.step volt=0
.OP point found by inspection.
.step volt=0.21
.step volt=0.42
.step volt=0.63
.step volt=0.84
.step volt=1.05
.step volt=1.26
.step volt=1.47
.step volt=1.68
.step volt=1.89
.step volt=2.1
.step volt=2.31
.step volt=2.52
.step volt=2.73
.step volt=2.94
.step volt=3


Measurement: oleg
  step	id(m1)*1000	at
     1	5.35491e-008	0
     2	2.49919e-010	0.21
     3	4.5987e-010	0.42
     4	6.69623e-010	0.63
     5	8.79614e-010	0.84
     6	1.0896e-009	1.05
     7	1.30086e-009	1.26
     8	1.50959e-009	1.47
     9	0.588062	1.68
    10	6.92646	1.89
    11	19.9945	2.1
    12	39.386	2.31
    13	64.6065	2.52
    14	95.2824	2.73
    15	131.078	2.94
    16	142.186	3

Measurement: u_zv1
  step	v1	at
     1	1.78902	1.78902
     2	1.78902	1.78902
     3	1.78902	1.78902
     4	1.78902	1.78902
     5	1.78902	1.78902
     6	1.78902	1.78902
     7	1.78902	1.78902
     8	1.78902	1.78902
     9	1.78902	1.78902
    10	1.78902	1.78902
    11	1.78902	1.78902
    12	1.78902	1.78902
    13	1.78902	1.78902
    14	1.78902	1.78902
    15	1.78902	1.78902
    16	1.78902	1.78902

Measurement: u_zv2
  step	v1	at
     1	1.98407	1.98407
     2	1.98407	1.98407
     3	1.98407	1.98407
     4	1.98407	1.98407
     5	1.98407	1.98407
     6	1.98407	1.98407
     7	1.98407	1.98407
     8	1.98407	1.98407
     9	1.98407	1.98407
    10	1.98407	1.98407
    11	1.98407	1.98407
    12	1.98407	1.98407
    13	1.98407	1.98407
    14	1.98407	1.98407
    15	1.98407	1.98407
    16	1.98407	1.98407

Measurement: u_porog
  step	2*u_zv1-u_zv2
     1	1.59397
     2	1.59397
     3	1.59397
     4	1.59397
     5	1.59397
     6	1.59397
     7	1.59397
     8	1.59397
     9	1.59397
    10	1.59397
    11	1.59397
    12	1.59397
    13	1.59397
    14	1.59397
    15	1.59397
    16	1.59397

Measurement: koef_b
  step	(3m*2)/((u_zv1-u_porog)*(u_zv1-u_porog))
     1	0.157707
     2	0.157707
     3	0.157707
     4	0.157707
     5	0.157707
     6	0.157707
     7	0.157707
     8	0.157707
     9	0.157707
    10	0.157707
    11	0.157707
    12	0.157707
    13	0.157707
    14	0.157707
    15	0.157707
    16	0.157707


Date: Fri Mar 16 01:45:15 2018
Total elapsed time: 0.457 seconds.

tnom = 27
temp = 27
method = trap
totiter = 120
traniter = 0
tranpoints = 0
accept = 0
rejected = 0
matrix size = 5
fillins = 0
solver = Normal
Matrix Compiler1: 168 bytes object code size  0.1/0.1/[0.0]
Matrix Compiler2: 349 bytes object code size  0.1/0.0/[0.0]

